  Page 1                                    Tue Feb 25 00:15:40 2025

  ******************************************************************
  *                           E P A N E T                          *
  *                   Hydraulic and Water Quality                  *
  *                   Analysis for Pipe Networks                   *
  *                         Version 2.3                            *
  ******************************************************************
  
  Analysis begun Tue Feb 25 00:15:40 2025

  Analysis ended Tue Feb 25 00:15:40 2025

   
  Node Results:
  ------------------------------------------------------------------
                  Elevation    Demand      Head  Pressure  Chemical
  Node                    m       L/s         m         m      mg/L
  ------------------------------------------------------------------
  jncA               10.000      0.00     97.35    87.348      0.00
  jncB               20.000     50.00     95.14    75.138      0.00
  jncC                5.000    200.00     92.84    87.835      0.00
  jncD                0.000    200.00     92.88    92.881      0.00
  rsv1              100.000   -450.00    100.00    -0.000      0.00  Reservoir
   
   
  Link Results:
  ----------------------------------------------
                       Flow  Velocity  Headloss
  Link                  L/s       m/s    /1000m
  ----------------------------------------------
  pipe1              450.00     2.292      8.84
  pipe2              288.01     1.467      3.68
  pipe3              161.99     1.289      3.76
  pipe4              124.59     0.991      2.26
  pipe5              113.41     0.902      1.88
  pipe6              -38.01     0.194      0.08
   