  Page 1                                    Sat Feb 22 19:46:38 2025

  ******************************************************************
  *                           E P A N E T                          *
  *                   Hydraulic and Water Quality                  *
  *                   Analysis for Pipe Networks                   *
  *                         Version 2.3                            *
  ******************************************************************
  
  Analysis begun Sat Feb 22 19:46:38 2025

  WARNING: Negative pressures at 0:00:00 hrs.
   
  Analysis ended Sat Feb 22 19:46:38 2025

   
  Node Results:
  ------------------------------------------------------------------
                  Elevation    Demand      Head  Pressure  Chemical
  Node                    m       L/s         m         m      mg/L
  ------------------------------------------------------------------
  jncA              100.000      0.00 -4.30e+16 -4.30e+16      0.00
  jncB               20.000     50.00 -7.93e+16 -7.93e+16      0.00
  jncC                5.000    200.00 -1.23e+17 -1.23e+17      0.00
  jncD                0.000    200.00 -1.22e+17 -1.22e+17      0.00
  rsv1                0.000   -450.00      0.00      0.00      0.00  Reservoir
   
   
  Link Results:
  ----------------------------------------------
                       Flow  Velocity  Headloss
  Link                  L/s       m/s    /1000m
  ----------------------------------------------
  pipe1              450.00  2.29e+06  1.43e+17
  pipe2              292.16  1.49e+06  6.04e+16
  pipe3              157.84  1.26e+06  6.65e+16
  pipe4              126.60  1.01e+06  4.28e+16
  pipe5              115.57 919649.12  3.56e+16
  pipe6              -42.16 214741.94  1.26e+15
   