  Page 1                                    Tue Mar 11 20:00:31 2025

  ******************************************************************
  *                           E P A N E T                          *
  *                   Hydraulic and Water Quality                  *
  *                   Analysis for Pipe Networks                   *
  *                         Version 2.3                            *
  ******************************************************************
  
  Error 226: no head curve or power rating for pump lowRsvPump
  Error 110: cannot solve network hydraulic equations