  Page 1                                    Wed Mar 12 00:41:06 2025

  ******************************************************************
  *                           E P A N E T                          *
  *                   Hydraulic and Water Quality                  *
  *                   Analysis for Pipe Networks                   *
  *                         Version 2.3                            *
  ******************************************************************
  
  Analysis begun Wed Mar 12 00:41:06 2025

   
   
  Energy Usage:
  ----------------------------------------------------------------
             Usage   Avg.     Kw-hr      Avg.      Peak      Cost
  Pump      Factor Effic.     /Mgal        Kw        Kw      /day
  ----------------------------------------------------------------
  lowRsvPump   72.00  54.00   2290.40   2449.46     34.02      0.00
  ----------------------------------------------------------------
                                         Demand Charge:      0.00
                                         Total Cost:         0.00
   
   
  Node Results at 0:00:00 hrs:
  ------------------------------------------------------------------
                  Elevation    Demand      Head  Pressure       AGE
  Node                   ft       gpm        ft       psi       hrs
  ------------------------------------------------------------------
  jncA              515.000      0.00    781.99   115.687      0.00
  jncB              515.000     35.00    781.91   115.650      0.00
  jncC              525.000     75.00    781.77   111.257      0.00
  jncD              530.000     40.00    781.85   109.125      0.00
  jncE              530.000    102.00    781.81   109.109      0.00
  jncF              535.000     98.00    781.76   106.921      0.00
  jncG              540.000     80.00    781.81   104.778      0.00
  jncH              550.000     50.00    781.76   100.424      0.00
  jncJ              550.000      0.00    781.79   100.433      0.00
  jncK              500.000      0.00    782.00   122.191      0.00
  rsvLow            500.000   -480.00    500.00     0.000      0.00  Reservoir
  rsvFire           645.000      0.00    645.00     0.000      0.00  Reservoir
   
   
  Link Results at 0:00:00 hrs:
  ------------------------------------------------------------------
                     Length  Diameter      Flow  Velocity  Headloss
  Link                   ft        in       gpm       fps   /1000ft
  ------------------------------------------------------------------
  lowRsvPump           0.00      0.00    480.00     0.000   -282.00  Pump
  pipeVal01          250.00     24.00     -0.00     0.000      0.00
  pipeAB             330.00     10.00    191.59     0.783      0.26
  pipeAE             330.00     10.00    288.41     1.178      0.55
  pipeBD             330.00     10.00    156.59     0.640      0.18
  pipeDG             330.00     10.00    116.59     0.476      0.10
  pipeGE             330.00     10.00     36.59     0.149      0.01
  pipeEC             330.00     10.00    130.28     0.532      0.13
  pipeCF             330.00     10.00     55.28     0.226      0.03
  pipeHF             330.00     10.00     42.72     0.175      0.02
  pipeJH             330.00     10.00     92.72     0.379      0.07
  pipeEJ             330.00     10.00     92.72     0.379      0.07
  pipePump2Net       550.00     24.00    480.00     0.340      0.02
   
   
  Node Results at 3:00:00 hrs:
  ------------------------------------------------------------------
                  Elevation    Demand      Head  Pressure       AGE
  Node                   ft       gpm        ft       psi       hrs
  ------------------------------------------------------------------
  jncA              515.000      0.00    781.99   115.687      0.45
  jncB              515.000     35.00    781.91   115.650      0.57
  jncC              525.000     75.00    781.77   111.257      0.81
  jncD              530.000     40.00    781.85   109.125      0.71
  jncE              530.000    102.00    781.81   109.109      0.64
  jncF              535.000     98.00    781.76   106.921      1.37
  jncG              540.000     80.00    781.81   104.778      0.90
  jncH              550.000     50.00    781.76   100.424      1.11
  jncJ              550.000      0.00    781.79   100.433      0.87
  jncK              500.000      0.00    782.00   122.191      0.00
  rsvLow            500.000   -480.00    500.00     0.000      0.00  Reservoir
  rsvFire           645.000      0.00    645.00     0.000      0.00  Reservoir
   
   
  Link Results at 3:00:00 hrs:
  ------------------------------------------------------------------
                     Length  Diameter      Flow  Velocity  Headloss
  Link                   ft        in       gpm       fps   /1000ft
  ------------------------------------------------------------------
  lowRsvPump           0.00      0.00    480.00     0.000   -282.00  Pump
  pipeVal01          250.00     24.00     -0.00     0.000      0.00
  pipeAB             330.00     10.00    191.59     0.783      0.26
  pipeAE             330.00     10.00    288.41     1.178      0.55
  pipeBD             330.00     10.00    156.59     0.640      0.18
  pipeDG             330.00     10.00    116.59     0.476      0.10
  pipeGE             330.00     10.00     36.59     0.149      0.01
  pipeEC             330.00     10.00    130.28     0.532      0.13
  pipeCF             330.00     10.00     55.28     0.226      0.03
  pipeHF             330.00     10.00     42.72     0.175      0.02
  pipeJH             330.00     10.00     92.72     0.379      0.07
  pipeEJ             330.00     10.00     92.72     0.379      0.07
  pipePump2Net       550.00     24.00    480.00     0.340      0.02
   
   
  Node Results at 6:00:00 hrs:
  ------------------------------------------------------------------
                  Elevation    Demand      Head  Pressure       AGE
  Node                   ft       gpm        ft       psi       hrs
  ------------------------------------------------------------------
  jncA              515.000      0.00    781.99   115.687      0.45
  jncB              515.000     35.00    781.91   115.650      0.57
  jncC              525.000     75.00    781.77   111.257      0.81
  jncD              530.000     40.00    781.85   109.125      0.71
  jncE              530.000    102.00    781.81   109.109      0.64
  jncF              535.000     98.00    781.76   106.921      1.40
  jncG              540.000     80.00    781.81   104.778      0.90
  jncH              550.000     50.00    781.76   100.424      1.12
  jncJ              550.000      0.00    781.79   100.433      0.88
  jncK              500.000      0.00    782.00   122.191      0.00
  rsvLow            500.000   -480.00    500.00     0.000      0.00  Reservoir
  rsvFire           645.000      0.00    645.00     0.000      0.00  Reservoir
   
   
  Link Results at 6:00:00 hrs:
  ------------------------------------------------------------------
                     Length  Diameter      Flow  Velocity  Headloss
  Link                   ft        in       gpm       fps   /1000ft
  ------------------------------------------------------------------
  lowRsvPump           0.00      0.00    480.00     0.000   -282.00  Pump
  pipeVal01          250.00     24.00     -0.00     0.000      0.00
  pipeAB             330.00     10.00    191.59     0.783      0.26
  pipeAE             330.00     10.00    288.41     1.178      0.55
  pipeBD             330.00     10.00    156.59     0.640      0.18
  pipeDG             330.00     10.00    116.59     0.476      0.10
  pipeGE             330.00     10.00     36.59     0.149      0.01
  pipeEC             330.00     10.00    130.28     0.532      0.13
  pipeCF             330.00     10.00     55.28     0.226      0.03
  pipeHF             330.00     10.00     42.72     0.175      0.02
  pipeJH             330.00     10.00     92.72     0.379      0.07
  pipeEJ             330.00     10.00     92.72     0.379      0.07
  pipePump2Net       550.00     24.00    480.00     0.340      0.02
   
   
  Node Results at 9:00:00 hrs:
  ------------------------------------------------------------------
                  Elevation    Demand      Head  Pressure       AGE
  Node                   ft       gpm        ft       psi       hrs
  ------------------------------------------------------------------
  jncA              515.000      0.00    781.99   115.687      0.45
  jncB              515.000     35.00    781.91   115.650      0.57
  jncC              525.000     75.00    781.77   111.257      0.81
  jncD              530.000     40.00    781.85   109.125      0.71
  jncE              530.000    102.00    781.81   109.109      0.64
  jncF              535.000     98.00    781.76   106.921      1.40
  jncG              540.000     80.00    781.81   104.778      0.90
  jncH              550.000     50.00    781.76   100.424      1.12
  jncJ              550.000      0.00    781.79   100.433      0.88
  jncK              500.000      0.00    782.00   122.191      0.00
  rsvLow            500.000   -480.00    500.00     0.000      0.00  Reservoir
  rsvFire           645.000      0.00    645.00     0.000      0.00  Reservoir
   
   
  Link Results at 9:00:00 hrs:
  ------------------------------------------------------------------
                     Length  Diameter      Flow  Velocity  Headloss
  Link                   ft        in       gpm       fps   /1000ft
  ------------------------------------------------------------------
  lowRsvPump           0.00      0.00    480.00     0.000   -282.00  Pump
  pipeVal01          250.00     24.00     -0.00     0.000      0.00
  pipeAB             330.00     10.00    191.59     0.783      0.26
  pipeAE             330.00     10.00    288.41     1.178      0.55
  pipeBD             330.00     10.00    156.59     0.640      0.18
  pipeDG             330.00     10.00    116.59     0.476      0.10
  pipeGE             330.00     10.00     36.59     0.149      0.01
  pipeEC             330.00     10.00    130.28     0.532      0.13
  pipeCF             330.00     10.00     55.28     0.226      0.03
  pipeHF             330.00     10.00     42.72     0.175      0.02
  pipeJH             330.00     10.00     92.72     0.379      0.07
  pipeEJ             330.00     10.00     92.72     0.379      0.07
  pipePump2Net       550.00     24.00    480.00     0.340      0.02
   
   
  Node Results at 12:00:00 hrs:
  ------------------------------------------------------------------
                  Elevation    Demand      Head  Pressure       AGE
  Node                   ft       gpm        ft       psi       hrs
  ------------------------------------------------------------------
  jncA              515.000      0.00    781.99   115.687      0.45
  jncB              515.000     35.00    781.91   115.650      0.57
  jncC              525.000     75.00    781.77   111.257      0.81
  jncD              530.000     40.00    781.85   109.125      0.71
  jncE              530.000    102.00    781.81   109.109      0.64
  jncF              535.000     98.00    781.76   106.921      1.40
  jncG              540.000     80.00    781.81   104.778      0.90
  jncH              550.000     50.00    781.76   100.424      1.12
  jncJ              550.000      0.00    781.79   100.433      0.88
  jncK              500.000      0.00    782.00   122.191      0.00
  rsvLow            500.000   -480.00    500.00     0.000      0.00  Reservoir
  rsvFire           645.000      0.00    645.00     0.000      0.00  Reservoir
   
   
  Link Results at 12:00:00 hrs:
  ------------------------------------------------------------------
                     Length  Diameter      Flow  Velocity  Headloss
  Link                   ft        in       gpm       fps   /1000ft
  ------------------------------------------------------------------
  lowRsvPump           0.00      0.00    480.00     0.000   -282.00  Pump
  pipeVal01          250.00     24.00     -0.00     0.000      0.00
  pipeAB             330.00     10.00    191.59     0.783      0.26
  pipeAE             330.00     10.00    288.41     1.178      0.55
  pipeBD             330.00     10.00    156.59     0.640      0.18
  pipeDG             330.00     10.00    116.59     0.476      0.10
  pipeGE             330.00     10.00     36.59     0.149      0.01
  pipeEC             330.00     10.00    130.28     0.532      0.13
  pipeCF             330.00     10.00     55.28     0.226      0.03
  pipeHF             330.00     10.00     42.72     0.175      0.02
  pipeJH             330.00     10.00     92.72     0.379      0.07
  pipeEJ             330.00     10.00     92.72     0.379      0.07
  pipePump2Net       550.00     24.00    480.00     0.340      0.02
   
   
  Node Results at 15:00:00 hrs:
  ------------------------------------------------------------------
                  Elevation    Demand      Head  Pressure       AGE
  Node                   ft       gpm        ft       psi       hrs
  ------------------------------------------------------------------
  jncA              515.000      0.00    781.99   115.687      0.45
  jncB              515.000     35.00    781.91   115.650      0.57
  jncC              525.000     75.00    781.77   111.257      0.81
  jncD              530.000     40.00    781.85   109.125      0.71
  jncE              530.000    102.00    781.81   109.109      0.64
  jncF              535.000     98.00    781.76   106.921      1.40
  jncG              540.000     80.00    781.81   104.778      0.90
  jncH              550.000     50.00    781.76   100.424      1.12
  jncJ              550.000      0.00    781.79   100.433      0.88
  jncK              500.000      0.00    782.00   122.191      0.00
  rsvLow            500.000   -480.00    500.00     0.000      0.00  Reservoir
  rsvFire           645.000      0.00    645.00     0.000      0.00  Reservoir
   
   
  Link Results at 15:00:00 hrs:
  ------------------------------------------------------------------
                     Length  Diameter      Flow  Velocity  Headloss
  Link                   ft        in       gpm       fps   /1000ft
  ------------------------------------------------------------------
  lowRsvPump           0.00      0.00    480.00     0.000   -282.00  Pump
  pipeVal01          250.00     24.00     -0.00     0.000      0.00
  pipeAB             330.00     10.00    191.59     0.783      0.26
  pipeAE             330.00     10.00    288.41     1.178      0.55
  pipeBD             330.00     10.00    156.59     0.640      0.18
  pipeDG             330.00     10.00    116.59     0.476      0.10
  pipeGE             330.00     10.00     36.59     0.149      0.01
  pipeEC             330.00     10.00    130.28     0.532      0.13
  pipeCF             330.00     10.00     55.28     0.226      0.03
  pipeHF             330.00     10.00     42.72     0.175      0.02
  pipeJH             330.00     10.00     92.72     0.379      0.07
  pipeEJ             330.00     10.00     92.72     0.379      0.07
  pipePump2Net       550.00     24.00    480.00     0.340      0.02
   
   
  Node Results at 18:00:00 hrs:
  ------------------------------------------------------------------
                  Elevation    Demand      Head  Pressure       AGE
  Node                   ft       gpm        ft       psi       hrs
  ------------------------------------------------------------------
  jncA              515.000      0.00    781.99   115.687      0.45
  jncB              515.000     35.00    781.91   115.650      0.57
  jncC              525.000     75.00    781.77   111.257      0.81
  jncD              530.000     40.00    781.85   109.125      0.71
  jncE              530.000    102.00    781.81   109.109      0.64
  jncF              535.000     98.00    781.76   106.921      1.40
  jncG              540.000     80.00    781.81   104.778      0.90
  jncH              550.000     50.00    781.76   100.424      1.12
  jncJ              550.000      0.00    781.79   100.433      0.88
  jncK              500.000      0.00    782.00   122.191      0.00
  rsvLow            500.000   -480.00    500.00     0.000      0.00  Reservoir
  rsvFire           645.000      0.00    645.00     0.000      0.00  Reservoir
   
   
  Link Results at 18:00:00 hrs:
  ------------------------------------------------------------------
                     Length  Diameter      Flow  Velocity  Headloss
  Link                   ft        in       gpm       fps   /1000ft
  ------------------------------------------------------------------
  lowRsvPump           0.00      0.00    480.00     0.000   -282.00  Pump
  pipeVal01          250.00     24.00     -0.00     0.000      0.00
  pipeAB             330.00     10.00    191.59     0.783      0.26
  pipeAE             330.00     10.00    288.41     1.178      0.55
  pipeBD             330.00     10.00    156.59     0.640      0.18
  pipeDG             330.00     10.00    116.59     0.476      0.10
  pipeGE             330.00     10.00     36.59     0.149      0.01
  pipeEC             330.00     10.00    130.28     0.532      0.13
  pipeCF             330.00     10.00     55.28     0.226      0.03
  pipeHF             330.00     10.00     42.72     0.175      0.02
  pipeJH             330.00     10.00     92.72     0.379      0.07
  pipeEJ             330.00     10.00     92.72     0.379      0.07
  pipePump2Net       550.00     24.00    480.00     0.340      0.02
   
   
  Node Results at 21:00:00 hrs:
  ------------------------------------------------------------------
                  Elevation    Demand      Head  Pressure       AGE
  Node                   ft       gpm        ft       psi       hrs
  ------------------------------------------------------------------
  jncA              515.000      0.00    781.99   115.687      0.45
  jncB              515.000     35.00    781.91   115.650      0.57
  jncC              525.000     75.00    781.77   111.257      0.81
  jncD              530.000     40.00    781.85   109.125      0.71
  jncE              530.000    102.00    781.81   109.109      0.64
  jncF              535.000     98.00    781.76   106.921      1.40
  jncG              540.000     80.00    781.81   104.778      0.90
  jncH              550.000     50.00    781.76   100.424      1.12
  jncJ              550.000      0.00    781.79   100.433      0.88
  jncK              500.000      0.00    782.00   122.191      0.00
  rsvLow            500.000   -480.00    500.00     0.000      0.00  Reservoir
  rsvFire           645.000      0.00    645.00     0.000      0.00  Reservoir
   
   
  Link Results at 21:00:00 hrs:
  ------------------------------------------------------------------
                     Length  Diameter      Flow  Velocity  Headloss
  Link                   ft        in       gpm       fps   /1000ft
  ------------------------------------------------------------------
  lowRsvPump           0.00      0.00    480.00     0.000   -282.00  Pump
  pipeVal01          250.00     24.00     -0.00     0.000      0.00
  pipeAB             330.00     10.00    191.59     0.783      0.26
  pipeAE             330.00     10.00    288.41     1.178      0.55
  pipeBD             330.00     10.00    156.59     0.640      0.18
  pipeDG             330.00     10.00    116.59     0.476      0.10
  pipeGE             330.00     10.00     36.59     0.149      0.01
  pipeEC             330.00     10.00    130.28     0.532      0.13
  pipeCF             330.00     10.00     55.28     0.226      0.03
  pipeHF             330.00     10.00     42.72     0.175      0.02
  pipeJH             330.00     10.00     92.72     0.379      0.07
  pipeEJ             330.00     10.00     92.72     0.379      0.07
  pipePump2Net       550.00     24.00    480.00     0.340      0.02
   
   
  Node Results at 24:00:00 hrs:
  ------------------------------------------------------------------
                  Elevation    Demand      Head  Pressure       AGE
  Node                   ft       gpm        ft       psi       hrs
  ------------------------------------------------------------------
  jncA              515.000      0.00    781.99   115.687      0.45
  jncB              515.000     35.00    781.91   115.650      0.57
  jncC              525.000     75.00    781.77   111.257      0.81
  jncD              530.000     40.00    781.85   109.125      0.71
  jncE              530.000    102.00    781.81   109.109      0.64
  jncF              535.000     98.00    781.76   106.921      1.40
  jncG              540.000     80.00    781.81   104.778      0.90
  jncH              550.000     50.00    781.76   100.424      1.12
  jncJ              550.000      0.00    781.79   100.433      0.88
  jncK              500.000      0.00    782.00   122.191      0.00
  rsvLow            500.000   -480.00    500.00     0.000      0.00  Reservoir
  rsvFire           645.000      0.00    645.00     0.000      0.00  Reservoir
   
   
  Link Results at 24:00:00 hrs:
  ------------------------------------------------------------------
                     Length  Diameter      Flow  Velocity  Headloss
  Link                   ft        in       gpm       fps   /1000ft
  ------------------------------------------------------------------
  lowRsvPump           0.00      0.00    480.00     0.000   -282.00  Pump
  pipeVal01          250.00     24.00     -0.00     0.000      0.00
  pipeAB             330.00     10.00    191.59     0.783      0.26
  pipeAE             330.00     10.00    288.41     1.178      0.55
  pipeBD             330.00     10.00    156.59     0.640      0.18
  pipeDG             330.00     10.00    116.59     0.476      0.10
  pipeGE             330.00     10.00     36.59     0.149      0.01
  pipeEC             330.00     10.00    130.28     0.532      0.13
  pipeCF             330.00     10.00     55.28     0.226      0.03
  pipeHF             330.00     10.00     42.72     0.175      0.02
  pipeJH             330.00     10.00     92.72     0.379      0.07
  pipeEJ             330.00     10.00     92.72     0.379      0.07
  pipePump2Net       550.00     24.00    480.00     0.340      0.02
   
   
  Node Results at 27:00:00 hrs:
  ------------------------------------------------------------------
                  Elevation    Demand      Head  Pressure       AGE
  Node                   ft       gpm        ft       psi       hrs
  ------------------------------------------------------------------
  jncA              515.000      0.00    781.99   115.687      0.45
  jncB              515.000     35.00    781.91   115.650      0.57
  jncC              525.000     75.00    781.77   111.257      0.81
  jncD              530.000     40.00    781.85   109.125      0.71
  jncE              530.000    102.00    781.81   109.109      0.64
  jncF              535.000     98.00    781.76   106.921      1.40
  jncG              540.000     80.00    781.81   104.778      0.90
  jncH              550.000     50.00    781.76   100.424      1.12
  jncJ              550.000      0.00    781.79   100.433      0.88
  jncK              500.000      0.00    782.00   122.191      0.00
  rsvLow            500.000   -480.00    500.00     0.000      0.00  Reservoir
  rsvFire           645.000      0.00    645.00     0.000      0.00  Reservoir
   
   
  Link Results at 27:00:00 hrs:
  ------------------------------------------------------------------
                     Length  Diameter      Flow  Velocity  Headloss
  Link                   ft        in       gpm       fps   /1000ft
  ------------------------------------------------------------------
  lowRsvPump           0.00      0.00    480.00     0.000   -282.00  Pump
  pipeVal01          250.00     24.00     -0.00     0.000      0.00
  pipeAB             330.00     10.00    191.59     0.783      0.26
  pipeAE             330.00     10.00    288.41     1.178      0.55
  pipeBD             330.00     10.00    156.59     0.640      0.18
  pipeDG             330.00     10.00    116.59     0.476      0.10
  pipeGE             330.00     10.00     36.59     0.149      0.01
  pipeEC             330.00     10.00    130.28     0.532      0.13
  pipeCF             330.00     10.00     55.28     0.226      0.03
  pipeHF             330.00     10.00     42.72     0.175      0.02
  pipeJH             330.00     10.00     92.72     0.379      0.07
  pipeEJ             330.00     10.00     92.72     0.379      0.07
  pipePump2Net       550.00     24.00    480.00     0.340      0.02
   
   
  Node Results at 30:00:00 hrs:
  ------------------------------------------------------------------
                  Elevation    Demand      Head  Pressure       AGE
  Node                   ft       gpm        ft       psi       hrs
  ------------------------------------------------------------------
  jncA              515.000      0.00    781.99   115.687      0.45
  jncB              515.000     35.00    781.91   115.650      0.57
  jncC              525.000     75.00    781.77   111.257      0.81
  jncD              530.000     40.00    781.85   109.125      0.71
  jncE              530.000    102.00    781.81   109.109      0.64
  jncF              535.000     98.00    781.76   106.921      1.40
  jncG              540.000     80.00    781.81   104.778      0.90
  jncH              550.000     50.00    781.76   100.424      1.12
  jncJ              550.000      0.00    781.79   100.433      0.88
  jncK              500.000      0.00    782.00   122.191      0.00
  rsvLow            500.000   -480.00    500.00     0.000      0.00  Reservoir
  rsvFire           645.000      0.00    645.00     0.000      0.00  Reservoir
   
   
  Link Results at 30:00:00 hrs:
  ------------------------------------------------------------------
                     Length  Diameter      Flow  Velocity  Headloss
  Link                   ft        in       gpm       fps   /1000ft
  ------------------------------------------------------------------
  lowRsvPump           0.00      0.00    480.00     0.000   -282.00  Pump
  pipeVal01          250.00     24.00     -0.00     0.000      0.00
  pipeAB             330.00     10.00    191.59     0.783      0.26
  pipeAE             330.00     10.00    288.41     1.178      0.55
  pipeBD             330.00     10.00    156.59     0.640      0.18
  pipeDG             330.00     10.00    116.59     0.476      0.10
  pipeGE             330.00     10.00     36.59     0.149      0.01
  pipeEC             330.00     10.00    130.28     0.532      0.13
  pipeCF             330.00     10.00     55.28     0.226      0.03
  pipeHF             330.00     10.00     42.72     0.175      0.02
  pipeJH             330.00     10.00     92.72     0.379      0.07
  pipeEJ             330.00     10.00     92.72     0.379      0.07
  pipePump2Net       550.00     24.00    480.00     0.340      0.02
   
   
  Node Results at 33:00:00 hrs:
  ------------------------------------------------------------------
                  Elevation    Demand      Head  Pressure       AGE
  Node                   ft       gpm        ft       psi       hrs
  ------------------------------------------------------------------
  jncA              515.000      0.00    781.99   115.687      0.45
  jncB              515.000     35.00    781.91   115.650      0.57
  jncC              525.000     75.00    781.77   111.257      0.81
  jncD              530.000     40.00    781.85   109.125      0.71
  jncE              530.000    102.00    781.81   109.109      0.64
  jncF              535.000     98.00    781.76   106.921      1.40
  jncG              540.000     80.00    781.81   104.778      0.90
  jncH              550.000     50.00    781.76   100.424      1.12
  jncJ              550.000      0.00    781.79   100.433      0.88
  jncK              500.000      0.00    782.00   122.191      0.00
  rsvLow            500.000   -480.00    500.00     0.000      0.00  Reservoir
  rsvFire           645.000      0.00    645.00     0.000      0.00  Reservoir
   
   
  Link Results at 33:00:00 hrs:
  ------------------------------------------------------------------
                     Length  Diameter      Flow  Velocity  Headloss
  Link                   ft        in       gpm       fps   /1000ft
  ------------------------------------------------------------------
  lowRsvPump           0.00      0.00    480.00     0.000   -282.00  Pump
  pipeVal01          250.00     24.00     -0.00     0.000      0.00
  pipeAB             330.00     10.00    191.59     0.783      0.26
  pipeAE             330.00     10.00    288.41     1.178      0.55
  pipeBD             330.00     10.00    156.59     0.640      0.18
  pipeDG             330.00     10.00    116.59     0.476      0.10
  pipeGE             330.00     10.00     36.59     0.149      0.01
  pipeEC             330.00     10.00    130.28     0.532      0.13
  pipeCF             330.00     10.00     55.28     0.226      0.03
  pipeHF             330.00     10.00     42.72     0.175      0.02
  pipeJH             330.00     10.00     92.72     0.379      0.07
  pipeEJ             330.00     10.00     92.72     0.379      0.07
  pipePump2Net       550.00     24.00    480.00     0.340      0.02
   
   
  Node Results at 36:00:00 hrs:
  ------------------------------------------------------------------
                  Elevation    Demand      Head  Pressure       AGE
  Node                   ft       gpm        ft       psi       hrs
  ------------------------------------------------------------------
  jncA              515.000      0.00    781.99   115.687      0.45
  jncB              515.000     35.00    781.91   115.650      0.57
  jncC              525.000     75.00    781.77   111.257      0.81
  jncD              530.000     40.00    781.85   109.125      0.71
  jncE              530.000    102.00    781.81   109.109      0.64
  jncF              535.000     98.00    781.76   106.921      1.40
  jncG              540.000     80.00    781.81   104.778      0.90
  jncH              550.000     50.00    781.76   100.424      1.12
  jncJ              550.000      0.00    781.79   100.433      0.88
  jncK              500.000      0.00    782.00   122.191      0.00
  rsvLow            500.000   -480.00    500.00     0.000      0.00  Reservoir
  rsvFire           645.000      0.00    645.00     0.000      0.00  Reservoir
   
   
  Link Results at 36:00:00 hrs:
  ------------------------------------------------------------------
                     Length  Diameter      Flow  Velocity  Headloss
  Link                   ft        in       gpm       fps   /1000ft
  ------------------------------------------------------------------
  lowRsvPump           0.00      0.00    480.00     0.000   -282.00  Pump
  pipeVal01          250.00     24.00     -0.00     0.000      0.00
  pipeAB             330.00     10.00    191.59     0.783      0.26
  pipeAE             330.00     10.00    288.41     1.178      0.55
  pipeBD             330.00     10.00    156.59     0.640      0.18
  pipeDG             330.00     10.00    116.59     0.476      0.10
  pipeGE             330.00     10.00     36.59     0.149      0.01
  pipeEC             330.00     10.00    130.28     0.532      0.13
  pipeCF             330.00     10.00     55.28     0.226      0.03
  pipeHF             330.00     10.00     42.72     0.175      0.02
  pipeJH             330.00     10.00     92.72     0.379      0.07
  pipeEJ             330.00     10.00     92.72     0.379      0.07
  pipePump2Net       550.00     24.00    480.00     0.340      0.02
   
   
  Node Results at 39:00:00 hrs:
  ------------------------------------------------------------------
                  Elevation    Demand      Head  Pressure       AGE
  Node                   ft       gpm        ft       psi       hrs
  ------------------------------------------------------------------
  jncA              515.000      0.00    781.99   115.687      0.45
  jncB              515.000     35.00    781.91   115.650      0.57
  jncC              525.000     75.00    781.77   111.257      0.81
  jncD              530.000     40.00    781.85   109.125      0.71
  jncE              530.000    102.00    781.81   109.109      0.64
  jncF              535.000     98.00    781.76   106.921      1.40
  jncG              540.000     80.00    781.81   104.778      0.90
  jncH              550.000     50.00    781.76   100.424      1.12
  jncJ              550.000      0.00    781.79   100.433      0.88
  jncK              500.000      0.00    782.00   122.191      0.00
  rsvLow            500.000   -480.00    500.00     0.000      0.00  Reservoir
  rsvFire           645.000      0.00    645.00     0.000      0.00  Reservoir
   
   
  Link Results at 39:00:00 hrs:
  ------------------------------------------------------------------
                     Length  Diameter      Flow  Velocity  Headloss
  Link                   ft        in       gpm       fps   /1000ft
  ------------------------------------------------------------------
  lowRsvPump           0.00      0.00    480.00     0.000   -282.00  Pump
  pipeVal01          250.00     24.00     -0.00     0.000      0.00
  pipeAB             330.00     10.00    191.59     0.783      0.26
  pipeAE             330.00     10.00    288.41     1.178      0.55
  pipeBD             330.00     10.00    156.59     0.640      0.18
  pipeDG             330.00     10.00    116.59     0.476      0.10
  pipeGE             330.00     10.00     36.59     0.149      0.01
  pipeEC             330.00     10.00    130.28     0.532      0.13
  pipeCF             330.00     10.00     55.28     0.226      0.03
  pipeHF             330.00     10.00     42.72     0.175      0.02
  pipeJH             330.00     10.00     92.72     0.379      0.07
  pipeEJ             330.00     10.00     92.72     0.379      0.07
  pipePump2Net       550.00     24.00    480.00     0.340      0.02
   
   
  Node Results at 42:00:00 hrs:
  ------------------------------------------------------------------
                  Elevation    Demand      Head  Pressure       AGE
  Node                   ft       gpm        ft       psi       hrs
  ------------------------------------------------------------------
  jncA              515.000      0.00    781.99   115.687      0.45
  jncB              515.000     35.00    781.91   115.650      0.57
  jncC              525.000     75.00    781.77   111.257      0.81
  jncD              530.000     40.00    781.85   109.125      0.71
  jncE              530.000    102.00    781.81   109.109      0.64
  jncF              535.000     98.00    781.76   106.921      1.40
  jncG              540.000     80.00    781.81   104.778      0.90
  jncH              550.000     50.00    781.76   100.424      1.12
  jncJ              550.000      0.00    781.79   100.433      0.88
  jncK              500.000      0.00    782.00   122.191      0.00
  rsvLow            500.000   -480.00    500.00     0.000      0.00  Reservoir
  rsvFire           645.000      0.00    645.00     0.000      0.00  Reservoir
   
   
  Link Results at 42:00:00 hrs:
  ------------------------------------------------------------------
                     Length  Diameter      Flow  Velocity  Headloss
  Link                   ft        in       gpm       fps   /1000ft
  ------------------------------------------------------------------
  lowRsvPump           0.00      0.00    480.00     0.000   -282.00  Pump
  pipeVal01          250.00     24.00     -0.00     0.000      0.00
  pipeAB             330.00     10.00    191.59     0.783      0.26
  pipeAE             330.00     10.00    288.41     1.178      0.55
  pipeBD             330.00     10.00    156.59     0.640      0.18
  pipeDG             330.00     10.00    116.59     0.476      0.10
  pipeGE             330.00     10.00     36.59     0.149      0.01
  pipeEC             330.00     10.00    130.28     0.532      0.13
  pipeCF             330.00     10.00     55.28     0.226      0.03
  pipeHF             330.00     10.00     42.72     0.175      0.02
  pipeJH             330.00     10.00     92.72     0.379      0.07
  pipeEJ             330.00     10.00     92.72     0.379      0.07
  pipePump2Net       550.00     24.00    480.00     0.340      0.02
   
   
  Node Results at 45:00:00 hrs:
  ------------------------------------------------------------------
                  Elevation    Demand      Head  Pressure       AGE
  Node                   ft       gpm        ft       psi       hrs
  ------------------------------------------------------------------
  jncA              515.000      0.00    781.99   115.687      0.45
  jncB              515.000     35.00    781.91   115.650      0.57
  jncC              525.000     75.00    781.77   111.257      0.81
  jncD              530.000     40.00    781.85   109.125      0.71
  jncE              530.000    102.00    781.81   109.109      0.64
  jncF              535.000     98.00    781.76   106.921      1.40
  jncG              540.000     80.00    781.81   104.778      0.90
  jncH              550.000     50.00    781.76   100.424      1.12
  jncJ              550.000      0.00    781.79   100.433      0.88
  jncK              500.000      0.00    782.00   122.191      0.00
  rsvLow            500.000   -480.00    500.00     0.000      0.00  Reservoir
  rsvFire           645.000      0.00    645.00     0.000      0.00  Reservoir
   
   
  Link Results at 45:00:00 hrs:
  ------------------------------------------------------------------
                     Length  Diameter      Flow  Velocity  Headloss
  Link                   ft        in       gpm       fps   /1000ft
  ------------------------------------------------------------------
  lowRsvPump           0.00      0.00    480.00     0.000   -282.00  Pump
  pipeVal01          250.00     24.00     -0.00     0.000      0.00
  pipeAB             330.00     10.00    191.59     0.783      0.26
  pipeAE             330.00     10.00    288.41     1.178      0.55
  pipeBD             330.00     10.00    156.59     0.640      0.18
  pipeDG             330.00     10.00    116.59     0.476      0.10
  pipeGE             330.00     10.00     36.59     0.149      0.01
  pipeEC             330.00     10.00    130.28     0.532      0.13
  pipeCF             330.00     10.00     55.28     0.226      0.03
  pipeHF             330.00     10.00     42.72     0.175      0.02
  pipeJH             330.00     10.00     92.72     0.379      0.07
  pipeEJ             330.00     10.00     92.72     0.379      0.07
  pipePump2Net       550.00     24.00    480.00     0.340      0.02
   
   
  Node Results at 48:00:00 hrs:
  ------------------------------------------------------------------
                  Elevation    Demand      Head  Pressure       AGE
  Node                   ft       gpm        ft       psi       hrs
  ------------------------------------------------------------------
  jncA              515.000      0.00    781.99   115.687      0.45
  jncB              515.000     35.00    781.91   115.650      0.57
  jncC              525.000     75.00    781.77   111.257      0.81
  jncD              530.000     40.00    781.85   109.125      0.71
  jncE              530.000    102.00    781.81   109.109      0.64
  jncF              535.000     98.00    781.76   106.921      1.40
  jncG              540.000     80.00    781.81   104.778      0.90
  jncH              550.000     50.00    781.76   100.424      1.12
  jncJ              550.000      0.00    781.79   100.433      0.88
  jncK              500.000      0.00    782.00   122.191      0.00
  rsvLow            500.000   -480.00    500.00     0.000      0.00  Reservoir
  rsvFire           645.000      0.00    645.00     0.000      0.00  Reservoir
   
   
  Link Results at 48:00:00 hrs:
  ------------------------------------------------------------------
                     Length  Diameter      Flow  Velocity  Headloss
  Link                   ft        in       gpm       fps   /1000ft
  ------------------------------------------------------------------
  lowRsvPump           0.00      0.00    480.00     0.000   -282.00  Pump
  pipeVal01          250.00     24.00     -0.00     0.000      0.00
  pipeAB             330.00     10.00    191.59     0.783      0.26
  pipeAE             330.00     10.00    288.41     1.178      0.55
  pipeBD             330.00     10.00    156.59     0.640      0.18
  pipeDG             330.00     10.00    116.59     0.476      0.10
  pipeGE             330.00     10.00     36.59     0.149      0.01
  pipeEC             330.00     10.00    130.28     0.532      0.13
  pipeCF             330.00     10.00     55.28     0.226      0.03
  pipeHF             330.00     10.00     42.72     0.175      0.02
  pipeJH             330.00     10.00     92.72     0.379      0.07
  pipeEJ             330.00     10.00     92.72     0.379      0.07
  pipePump2Net       550.00     24.00    480.00     0.340      0.02
   
   
  Node Results at 51:00:00 hrs:
  ------------------------------------------------------------------
                  Elevation    Demand      Head  Pressure       AGE
  Node                   ft       gpm        ft       psi       hrs
  ------------------------------------------------------------------
  jncA              515.000      0.00    781.99   115.687      0.45
  jncB              515.000     35.00    781.91   115.650      0.57
  jncC              525.000     75.00    781.77   111.257      0.81
  jncD              530.000     40.00    781.85   109.125      0.71
  jncE              530.000    102.00    781.81   109.109      0.64
  jncF              535.000     98.00    781.76   106.921      1.40
  jncG              540.000     80.00    781.81   104.778      0.90
  jncH              550.000     50.00    781.76   100.424      1.12
  jncJ              550.000      0.00    781.79   100.433      0.88
  jncK              500.000      0.00    782.00   122.191      0.00
  rsvLow            500.000   -480.00    500.00     0.000      0.00  Reservoir
  rsvFire           645.000      0.00    645.00     0.000      0.00  Reservoir
   
   
  Link Results at 51:00:00 hrs:
  ------------------------------------------------------------------
                     Length  Diameter      Flow  Velocity  Headloss
  Link                   ft        in       gpm       fps   /1000ft
  ------------------------------------------------------------------
  lowRsvPump           0.00      0.00    480.00     0.000   -282.00  Pump
  pipeVal01          250.00     24.00     -0.00     0.000      0.00
  pipeAB             330.00     10.00    191.59     0.783      0.26
  pipeAE             330.00     10.00    288.41     1.178      0.55
  pipeBD             330.00     10.00    156.59     0.640      0.18
  pipeDG             330.00     10.00    116.59     0.476      0.10
  pipeGE             330.00     10.00     36.59     0.149      0.01
  pipeEC             330.00     10.00    130.28     0.532      0.13
  pipeCF             330.00     10.00     55.28     0.226      0.03
  pipeHF             330.00     10.00     42.72     0.175      0.02
  pipeJH             330.00     10.00     92.72     0.379      0.07
  pipeEJ             330.00     10.00     92.72     0.379      0.07
  pipePump2Net       550.00     24.00    480.00     0.340      0.02
   
   
  Node Results at 54:00:00 hrs:
  ------------------------------------------------------------------
                  Elevation    Demand      Head  Pressure       AGE
  Node                   ft       gpm        ft       psi       hrs
  ------------------------------------------------------------------
  jncA              515.000      0.00    781.99   115.687      0.45
  jncB              515.000     35.00    781.91   115.650      0.57
  jncC              525.000     75.00    781.77   111.257      0.81
  jncD              530.000     40.00    781.85   109.125      0.71
  jncE              530.000    102.00    781.81   109.109      0.64
  jncF              535.000     98.00    781.76   106.921      1.40
  jncG              540.000     80.00    781.81   104.778      0.90
  jncH              550.000     50.00    781.76   100.424      1.12
  jncJ              550.000      0.00    781.79   100.433      0.88
  jncK              500.000      0.00    782.00   122.191      0.00
  rsvLow            500.000   -480.00    500.00     0.000      0.00  Reservoir
  rsvFire           645.000      0.00    645.00     0.000      0.00  Reservoir
   
   
  Link Results at 54:00:00 hrs:
  ------------------------------------------------------------------
                     Length  Diameter      Flow  Velocity  Headloss
  Link                   ft        in       gpm       fps   /1000ft
  ------------------------------------------------------------------
  lowRsvPump           0.00      0.00    480.00     0.000   -282.00  Pump
  pipeVal01          250.00     24.00     -0.00     0.000      0.00
  pipeAB             330.00     10.00    191.59     0.783      0.26
  pipeAE             330.00     10.00    288.41     1.178      0.55
  pipeBD             330.00     10.00    156.59     0.640      0.18
  pipeDG             330.00     10.00    116.59     0.476      0.10
  pipeGE             330.00     10.00     36.59     0.149      0.01
  pipeEC             330.00     10.00    130.28     0.532      0.13
  pipeCF             330.00     10.00     55.28     0.226      0.03
  pipeHF             330.00     10.00     42.72     0.175      0.02
  pipeJH             330.00     10.00     92.72     0.379      0.07
  pipeEJ             330.00     10.00     92.72     0.379      0.07
  pipePump2Net       550.00     24.00    480.00     0.340      0.02
   
   
  Node Results at 57:00:00 hrs:
  ------------------------------------------------------------------
                  Elevation    Demand      Head  Pressure       AGE
  Node                   ft       gpm        ft       psi       hrs
  ------------------------------------------------------------------
  jncA              515.000      0.00    781.99   115.687      0.45
  jncB              515.000     35.00    781.91   115.650      0.57
  jncC              525.000     75.00    781.77   111.257      0.81
  jncD              530.000     40.00    781.85   109.125      0.71
  jncE              530.000    102.00    781.81   109.109      0.64
  jncF              535.000     98.00    781.76   106.921      1.40
  jncG              540.000     80.00    781.81   104.778      0.90
  jncH              550.000     50.00    781.76   100.424      1.12
  jncJ              550.000      0.00    781.79   100.433      0.88
  jncK              500.000      0.00    782.00   122.191      0.00
  rsvLow            500.000   -480.00    500.00     0.000      0.00  Reservoir
  rsvFire           645.000      0.00    645.00     0.000      0.00  Reservoir
   
   
  Link Results at 57:00:00 hrs:
  ------------------------------------------------------------------
                     Length  Diameter      Flow  Velocity  Headloss
  Link                   ft        in       gpm       fps   /1000ft
  ------------------------------------------------------------------
  lowRsvPump           0.00      0.00    480.00     0.000   -282.00  Pump
  pipeVal01          250.00     24.00     -0.00     0.000      0.00
  pipeAB             330.00     10.00    191.59     0.783      0.26
  pipeAE             330.00     10.00    288.41     1.178      0.55
  pipeBD             330.00     10.00    156.59     0.640      0.18
  pipeDG             330.00     10.00    116.59     0.476      0.10
  pipeGE             330.00     10.00     36.59     0.149      0.01
  pipeEC             330.00     10.00    130.28     0.532      0.13
  pipeCF             330.00     10.00     55.28     0.226      0.03
  pipeHF             330.00     10.00     42.72     0.175      0.02
  pipeJH             330.00     10.00     92.72     0.379      0.07
  pipeEJ             330.00     10.00     92.72     0.379      0.07
  pipePump2Net       550.00     24.00    480.00     0.340      0.02
   
   
  Node Results at 60:00:00 hrs:
  ------------------------------------------------------------------
                  Elevation    Demand      Head  Pressure       AGE
  Node                   ft       gpm        ft       psi       hrs
  ------------------------------------------------------------------
  jncA              515.000      0.00    781.99   115.687      0.45
  jncB              515.000     35.00    781.91   115.650      0.57
  jncC              525.000     75.00    781.77   111.257      0.81
  jncD              530.000     40.00    781.85   109.125      0.71
  jncE              530.000    102.00    781.81   109.109      0.64
  jncF              535.000     98.00    781.76   106.921      1.40
  jncG              540.000     80.00    781.81   104.778      0.90
  jncH              550.000     50.00    781.76   100.424      1.12
  jncJ              550.000      0.00    781.79   100.433      0.88
  jncK              500.000      0.00    782.00   122.191      0.00
  rsvLow            500.000   -480.00    500.00     0.000      0.00  Reservoir
  rsvFire           645.000      0.00    645.00     0.000      0.00  Reservoir
   
   
  Link Results at 60:00:00 hrs:
  ------------------------------------------------------------------
                     Length  Diameter      Flow  Velocity  Headloss
  Link                   ft        in       gpm       fps   /1000ft
  ------------------------------------------------------------------
  lowRsvPump           0.00      0.00    480.00     0.000   -282.00  Pump
  pipeVal01          250.00     24.00     -0.00     0.000      0.00
  pipeAB             330.00     10.00    191.59     0.783      0.26
  pipeAE             330.00     10.00    288.41     1.178      0.55
  pipeBD             330.00     10.00    156.59     0.640      0.18
  pipeDG             330.00     10.00    116.59     0.476      0.10
  pipeGE             330.00     10.00     36.59     0.149      0.01
  pipeEC             330.00     10.00    130.28     0.532      0.13
  pipeCF             330.00     10.00     55.28     0.226      0.03
  pipeHF             330.00     10.00     42.72     0.175      0.02
  pipeJH             330.00     10.00     92.72     0.379      0.07
  pipeEJ             330.00     10.00     92.72     0.379      0.07
  pipePump2Net       550.00     24.00    480.00     0.340      0.02
   
   
  Node Results at 63:00:00 hrs:
  ------------------------------------------------------------------
                  Elevation    Demand      Head  Pressure       AGE
  Node                   ft       gpm        ft       psi       hrs
  ------------------------------------------------------------------
  jncA              515.000      0.00    781.99   115.687      0.45
  jncB              515.000     35.00    781.91   115.650      0.57
  jncC              525.000     75.00    781.77   111.257      0.81
  jncD              530.000     40.00    781.85   109.125      0.71
  jncE              530.000    102.00    781.81   109.109      0.64
  jncF              535.000     98.00    781.76   106.921      1.40
  jncG              540.000     80.00    781.81   104.778      0.90
  jncH              550.000     50.00    781.76   100.424      1.12
  jncJ              550.000      0.00    781.79   100.433      0.88
  jncK              500.000      0.00    782.00   122.191      0.00
  rsvLow            500.000   -480.00    500.00     0.000      0.00  Reservoir
  rsvFire           645.000      0.00    645.00     0.000      0.00  Reservoir
   
   
  Link Results at 63:00:00 hrs:
  ------------------------------------------------------------------
                     Length  Diameter      Flow  Velocity  Headloss
  Link                   ft        in       gpm       fps   /1000ft
  ------------------------------------------------------------------
  lowRsvPump           0.00      0.00    480.00     0.000   -282.00  Pump
  pipeVal01          250.00     24.00     -0.00     0.000      0.00
  pipeAB             330.00     10.00    191.59     0.783      0.26
  pipeAE             330.00     10.00    288.41     1.178      0.55
  pipeBD             330.00     10.00    156.59     0.640      0.18
  pipeDG             330.00     10.00    116.59     0.476      0.10
  pipeGE             330.00     10.00     36.59     0.149      0.01
  pipeEC             330.00     10.00    130.28     0.532      0.13
  pipeCF             330.00     10.00     55.28     0.226      0.03
  pipeHF             330.00     10.00     42.72     0.175      0.02
  pipeJH             330.00     10.00     92.72     0.379      0.07
  pipeEJ             330.00     10.00     92.72     0.379      0.07
  pipePump2Net       550.00     24.00    480.00     0.340      0.02
   
   
  Node Results at 66:00:00 hrs:
  ------------------------------------------------------------------
                  Elevation    Demand      Head  Pressure       AGE
  Node                   ft       gpm        ft       psi       hrs
  ------------------------------------------------------------------
  jncA              515.000      0.00    781.99   115.687      0.45
  jncB              515.000     35.00    781.91   115.650      0.57
  jncC              525.000     75.00    781.77   111.257      0.81
  jncD              530.000     40.00    781.85   109.125      0.71
  jncE              530.000    102.00    781.81   109.109      0.64
  jncF              535.000     98.00    781.76   106.921      1.40
  jncG              540.000     80.00    781.81   104.778      0.90
  jncH              550.000     50.00    781.76   100.424      1.12
  jncJ              550.000      0.00    781.79   100.433      0.88
  jncK              500.000      0.00    782.00   122.191      0.00
  rsvLow            500.000   -480.00    500.00     0.000      0.00  Reservoir
  rsvFire           645.000      0.00    645.00     0.000      0.00  Reservoir
   
   
  Link Results at 66:00:00 hrs:
  ------------------------------------------------------------------
                     Length  Diameter      Flow  Velocity  Headloss
  Link                   ft        in       gpm       fps   /1000ft
  ------------------------------------------------------------------
  lowRsvPump           0.00      0.00    480.00     0.000   -282.00  Pump
  pipeVal01          250.00     24.00     -0.00     0.000      0.00
  pipeAB             330.00     10.00    191.59     0.783      0.26
  pipeAE             330.00     10.00    288.41     1.178      0.55
  pipeBD             330.00     10.00    156.59     0.640      0.18
  pipeDG             330.00     10.00    116.59     0.476      0.10
  pipeGE             330.00     10.00     36.59     0.149      0.01
  pipeEC             330.00     10.00    130.28     0.532      0.13
  pipeCF             330.00     10.00     55.28     0.226      0.03
  pipeHF             330.00     10.00     42.72     0.175      0.02
  pipeJH             330.00     10.00     92.72     0.379      0.07
  pipeEJ             330.00     10.00     92.72     0.379      0.07
  pipePump2Net       550.00     24.00    480.00     0.340      0.02
   
   
  Node Results at 69:00:00 hrs:
  ------------------------------------------------------------------
                  Elevation    Demand      Head  Pressure       AGE
  Node                   ft       gpm        ft       psi       hrs
  ------------------------------------------------------------------
  jncA              515.000      0.00    781.99   115.687      0.45
  jncB              515.000     35.00    781.91   115.650      0.57
  jncC              525.000     75.00    781.77   111.257      0.81
  jncD              530.000     40.00    781.85   109.125      0.71
  jncE              530.000    102.00    781.81   109.109      0.64
  jncF              535.000     98.00    781.76   106.921      1.40
  jncG              540.000     80.00    781.81   104.778      0.90
  jncH              550.000     50.00    781.76   100.424      1.12
  jncJ              550.000      0.00    781.79   100.433      0.88
  jncK              500.000      0.00    782.00   122.191      0.00
  rsvLow            500.000   -480.00    500.00     0.000      0.00  Reservoir
  rsvFire           645.000      0.00    645.00     0.000      0.00  Reservoir
   
   
  Link Results at 69:00:00 hrs:
  ------------------------------------------------------------------
                     Length  Diameter      Flow  Velocity  Headloss
  Link                   ft        in       gpm       fps   /1000ft
  ------------------------------------------------------------------
  lowRsvPump           0.00      0.00    480.00     0.000   -282.00  Pump
  pipeVal01          250.00     24.00     -0.00     0.000      0.00
  pipeAB             330.00     10.00    191.59     0.783      0.26
  pipeAE             330.00     10.00    288.41     1.178      0.55
  pipeBD             330.00     10.00    156.59     0.640      0.18
  pipeDG             330.00     10.00    116.59     0.476      0.10
  pipeGE             330.00     10.00     36.59     0.149      0.01
  pipeEC             330.00     10.00    130.28     0.532      0.13
  pipeCF             330.00     10.00     55.28     0.226      0.03
  pipeHF             330.00     10.00     42.72     0.175      0.02
  pipeJH             330.00     10.00     92.72     0.379      0.07
  pipeEJ             330.00     10.00     92.72     0.379      0.07
  pipePump2Net       550.00     24.00    480.00     0.340      0.02
   
   
  Node Results at 72:00:00 hrs:
  ------------------------------------------------------------------
                  Elevation    Demand      Head  Pressure       AGE
  Node                   ft       gpm        ft       psi       hrs
  ------------------------------------------------------------------
  jncA              515.000      0.00    781.99   115.687      0.45
  jncB              515.000     35.00    781.91   115.650      0.57
  jncC              525.000     75.00    781.77   111.257      0.81
  jncD              530.000     40.00    781.85   109.125      0.71
  jncE              530.000    102.00    781.81   109.109      0.64
  jncF              535.000     98.00    781.76   106.921      1.40
  jncG              540.000     80.00    781.81   104.778      0.90
  jncH              550.000     50.00    781.76   100.424      1.12
  jncJ              550.000      0.00    781.79   100.433      0.88
  jncK              500.000      0.00    782.00   122.191      0.00
  rsvLow            500.000   -480.00    500.00     0.000      0.00  Reservoir
  rsvFire           645.000      0.00    645.00     0.000      0.00  Reservoir
   
   
  Link Results at 72:00:00 hrs:
  ------------------------------------------------------------------
                     Length  Diameter      Flow  Velocity  Headloss
  Link                   ft        in       gpm       fps   /1000ft
  ------------------------------------------------------------------
  lowRsvPump           0.00      0.00    480.00     0.000   -282.00  Pump
  pipeVal01          250.00     24.00     -0.00     0.000      0.00
  pipeAB             330.00     10.00    191.59     0.783      0.26
  pipeAE             330.00     10.00    288.41     1.178      0.55
  pipeBD             330.00     10.00    156.59     0.640      0.18
  pipeDG             330.00     10.00    116.59     0.476      0.10
  pipeGE             330.00     10.00     36.59     0.149      0.01
  pipeEC             330.00     10.00    130.28     0.532      0.13
  pipeCF             330.00     10.00     55.28     0.226      0.03
  pipeHF             330.00     10.00     42.72     0.175      0.02
  pipeJH             330.00     10.00     92.72     0.379      0.07
  pipeEJ             330.00     10.00     92.72     0.379      0.07
  pipePump2Net       550.00     24.00    480.00     0.340      0.02
   
  Analysis ended Wed Mar 12 00:41:06 2025
